LAMMPS (27 May 2021)
#input script for granular ellipsoid simulation
units micro
atom_style sphere

read_data data.grain
Reading data file ...
  orthogonal box = (5.0000000 15.000000 0.0000000) to (25.000000 32.532225 20.000000)
  reading atoms ...
  10448 atoms

#perform constant NVE integration to update velocity and position.
fix 1 all gravity 100.0 chute 24.0

comm_modify vel yes

pair_style gran/hooke 200000.0 70000.0 50.0 30.0 0.5 0 limit_damping
pair_coeff * *

dump		2 all image 1000 image.*.jpg type type #		zoom 1.6 adiam 1.5 body type 1.0 0
#dump_modify    2 pad 5

thermo      100
run		10000
  update every 1 steps, delay 10 steps, check yes
Step Temp E_pair E_mol TotEng Press
0            0            0            0            0 0.0033044737
Averages over the last 51 of 101 rows, steps 5000 to 10000:
Temp E_pair E_mol TotEng Press
0 0 0 0 0.00330447
Loop time of 4.40135 on 1 procs for 10000 steps with 10448 atoms
